test/externals/pnnl2bus.cdf
 02/15/07 PNNL GRIDLABD TEST   100.0  2007 S PNNL 2 Bus Test Case
BUS DATA FOLLOWS                             2 ITEMS
   2 Bus 2     LV  1  1  0 0.885  0.635    100.0    20.00    0.000   0.000     0.0    0.0     0.0     0.0   0.0    0.0        0
   1 Bus 1     LV  1  1  3 1.000  0.000    0.000    0.000    113.3   20.88     0.0    0.0     0.0     0.0   0.0    0.0        0
-999 
BRANCH DATA FOLLOWS                          1 ITEMS
   1    2  1  1 1 0  0.10000   0.01000     0.0050     0     0     0    0 0  0.0       0.0 0.0    0.0     0.0    0.0   0.0
-999 
LOSS ZONES FOLLOWS                     1 ITEMS
  1 PNNL 2 BUS
-99
INTERCHANGE DATA FOLLOWS                 1 ITEMS
 1    2 Bus 2     HV    0.0  999.99  PNNL2   PNNL 2 Bus Test Case
-9
TIE LINES FOLLOWS                     0 ITEMS
-999
END OF DATA
